* Library of bipolar transistor model parameters
*
*   Copyright 1992, 1995 by CAD Department 
*   of St-Peterburg Electrical Engineering University.
*   Neither this library nor any part may be copied without the express
*   written consent of CAD Dep. of S-Pb EEU
*   tel. (812) 234.36.75  A.Isakov
*
* Release date: May '92
* Revision: Nov '95
*
*** NT Family
*
.model q2TS622a PNP(Is=2.304f Xti=3 Eg=1.11 Vaf=78 Bf=91.15 Ne=1.406 
+  Ise=53.59f Ikf=2.65 Xtb=1.5 Br=.7955 Nc=2 Isc=53.5f Ikr=1.3 Rc=1.2
+  Rb=18.8 Cjc=39.2p Mjc=.4446 Vjc=.75 Fc=.5 Cje=23.31p Mje=.201 Vje=.75
+  Tr=150.8n Tf=313.9p Itf=2.5 Vtf=40 Xtf=1.5)
*
**** TS3103 Family
*
.model TS3103a1 PNP(Is=449.1E-18 Xti=3 Eg=1.11 Vaf=63.25 Bf=137.7 Ne=3.148
+  Ise=98.79p Ikf=.1065 Xtb=1.5 Var=42.2 Br=.9704 Nc=2 Isc=1.12f Ikr=.251 
+  Rb=56 Rc=6.7 Cjc=3.721p Vjc=.75 Mjc=.33 Fc=.5 Cje=1.8p Vje=.69 Mje=.33 
+  Tr=56.41n Tf=73.23p Itf=45m Vtf=15 Xtf=2)
.model TS3103a2 PNP(Is=566.4E-18 Xti=3 Eg=1.11 Vaf=63.8 Bf=138.9 Ne=3.136
+  Ise=112.3p Ikf=.1211 Xtb=1.5 Var=42 Br=2.336 Nc=2 Isc=2.563p Ikr=.251 
+  Rb=63 Rc=8.3 Cjc=3.721p Vjc=.75 Mjc=.33 Fc=.5 Cje=1.812p Vje=.69 
+  Mje=.33 Tr=24.66n Tf=81.76p Itf=.134 Vtf=15 Xtf=2)
*
**** 2T203 Family
*
.model q2T203a  PNP(Is=459.4E-18 Xti=3 Eg=1.11 Vaf=85.5 Bf=29.73 
+  Ise=14.21f Ne=1.406 Ikf=24.22m Nk=.5 Xtb=1.5 Br=1.432 Isc=183.9f 
+  Nc=1.223 Ikr=.8622 Rb265 Rc=.3177 Cjc=15.77p Mjc=.33 Vjc=.75 Fc=.5 
+  Cje=93.8p Mje=.5729 Vje=.75 Tr=10.33u Tf=20.58n Itf=.23 Xtf=2 Vtf=30)
.model q2T203b  PNP(Is=459.4E-18 Xti=3 Eg=1.11 Vaf=46.32 Bf=59.84 
+  Ise=472E-18 Ne=1.23 Ikf=14.75m Nk=.5 Xtb=1.5 Br=.9521 Isc=183.9f 
+  Nc=1.223 Ikr=.8622 Rb=270 Rc=.3177 Cjc=12.95p Mjc=.33 Vjc=.75 Fc=.5 
+  Cje=93.8p Mje=.5729 Vje=.75 Tr=10.33u Tf=14.64n Itf=.25 Xtf=2 Vtf=20)
.model q2T203v  PNP(Is=459.4E-18 Xti=3 Eg=1.11 Vaf=46.32 Bf=76.19 
+  Ise=1.666f Ne=1.288 Ikf=11.51m Nk=.5 Xtb=1.5 Br=1.432 Isc=183.9f 
+  Nc=1.223 Ikr=.8622 Rb=280 Rc=.3177 Cjc=15.77p Mjc=.33 Vjc=.75 Fc=.5 
+  Cje=93.8p Mje=.5729 Vje=.75 Tr=7.428u Tf=9.768n Itf=.3 Xtf=2 Vtf=10)
*
**** 2T208 Family
*
.model q2T208a  PNP(Is=8.347f Xti=3 Eg=1.11 Vaf=46.32 Bf=99.51 Ne=1.913 
+  Ise=64.3p Ikf=94.54m Xtb=1.5 Var=13 Br=12.49 Nc=2 Isc=64f Ikr=.305 
+  Rb=13 Rc=.45 Cjc=100p Mjc=.39 Vjc=.75 Fc=.5 Cje=93.8p Mje=.5729 
+  Vje=.75 Tr=383.4n Tf=30.35n Itf=.3 Vtf=20 Xtf=1.5)
.model q2T208b  PNP(Is=8.347f Xti=3 Eg=1.11 Vaf=46.32 Bf=100 Ne=1.523 
+  Ise=357.9f Ikf=.6605 Xtb=1.5 Br=3.606 Nc=2 Isc=64f Ikr=.305 Rb=15 
+  Rc=.4 Cjc=100p Mjc=.39 Vjc=.75 Fc=.5 Cje=93.8p Mje=.5729 Vje=.75 
+  Tr=718.4n Tf=25.14n Itf=.3 Vtf=20 Xtf=1.5)
.model q2T208v  PNP(Is=7.151f Xti=3 Eg=1.11 Vaf=46.32 Bf=138.9 Ne=1.934 
+  Ise=5.84p Ikf=1.068 Xtb=1.5 Br=3.606 Nc=2 Isc=64f Ikr=.305 Rb=15 
+  Rc=.4 Cjc=100p Mjc=.39 Vjc=.75 Fc=.5 Cje=93.8p  Mje=.5729 Vje=.75 
+  Tr=583.5n Tf=21.36n Itf=.3 Vtf=20 Xtf=1.5)
.model q2T208g  PNP(Is=8.347f Xti=3 Eg=1.11 Vaf=46.32 Bf=99.51 Ne=1.913 
+  Ise=64.3p Ikf=94.54m Xtb=1.5 Var=13 Br=12.49 Nc=2 Isc=64f Ikr=.305 
+  Rb=13 Rc=.45 Cjc=100p Mjc=.39 Vjc=.75 Fc=.5 Cje=93.8p Mje=.5729 
+  Vje=.75 Tr=383.4n Tf=30.35n Itf=.3 Vtf=30 Xtf=1.5)
.model q2T208d  PNP(Is=8.347f Xti=3 Eg=1.11 Vaf=46.32 Bf=100 Ne=1.523 
+  Ise=357.9f Ikf=.6605 Xtb=1.5 Br=3.606 Nc=2 Isc=64f Ikr=.305 Rb=15 
+  Rc=.4 Cjc=100p Mjc=.39 Vjc=.75 Fc=.5 Cje=93.8p Mje=.5729 Vje=.75 
+  Tr=718.4n Tf=25.14n Itf=.3 Vtf=30 Xtf=1.5)
.model q2T208e  PNP(Is=7.151f Xti=3 Eg=1.11 Vaf=46.32 Bf=138.9 Ne=1.934 
+  Ise=5.84p Ikf=1.068 Xtb=1.5 Br=3.606 Nc=2 Isc=64f Ikr=.305 Rb=15 
+  Rc=.4 Cjc=100p Mjc=.39 Vjc=.75 Fc=.5 Cje=93.8p  Mje=.5729 Vje=.75 
+  Tr=583.5n Tf=21.36n Itf=.3 Vtf=30 Xtf=1.5)
.model q2T208j  PNP(Is=8.347f Xti=3 Eg=1.11 Vaf=46.32 Bf=99.51 Ne=1.913 
+  Ise=64.3p Ikf=94.54m Xtb=1.5 Var=13 Br=12.49 Nc=2 Isc=64f Ikr=.305 
+  Rb=13 Rc=.45 Cjc=100p Mjc=.39 Vjc=.75 Fc=.5 Cje=93.8p Mje=.5729 
+  Vje=.75 Tr=383.4n Tf=30.35n Itf=.3 Vtf=45 Xtf=1.5)
.model q2T208i  PNP(Is=8.347f Xti=3 Eg=1.11 Vaf=46.32 Bf=100 Ne=1.523 
+  Ise=357.9f Ikf=.6605 Xtb=1.5 Br=3.606 Nc=2 Isc=64f Ikr=.305 Rb=15 
+  Rc=.4 Cjc=100p Mjc=.39 Vjc=.75 Fc=.5 Cje=93.8p Mje=.5729 Vje=.75 
+  Tr=718.4n Tf=25.14n Itf=.3 Vtf=45 Xtf=1.5)
.model q2T208k  PNP(Is=7.151f Xti=3 Eg=1.11 Vaf=46.32 Bf=138.9 Ne=1.934 
+  Ise=5.84p Ikf=1.068 Xtb=1.5 Br=3.606 Nc=2 Isc=64f Ikr=.305 Rb=15 
+  Rc=.4 Cjc=100p Mjc=.39 Vjc=.75 Fc=.5 Cje=93.8p  Mje=.5729 Vje=.75 
+  Tr=583.5n Tf=21.36n Itf=.3 Vtf=50 Xtf=1.5)
.model q2T208l  PNP(Is=8.347f Xti=3 Eg=1.11 Vaf=46.32 Bf=99.51 Ne=1.913 
+  Ise=64.3p Ikf=94.54m Xtb=1.5 Var=13 Br=12.49 Nc=2 Isc=64f Ikr=.305 
+  Rb=13 Rc=.45 Cjc=100p Mjc=.39 Vjc=.75 Fc=.5 Cje=93.8p Mje=.5729 
+  Vje=.75 Tr=383.4n Tf=30.35n Itf=.3 Vtf=50 Xtf=1.5)
.model q2T208m  PNP(Is=8.347f Xti=3 Eg=1.11 Vaf=46.32 Bf=100 Ne=1.523 
+  Ise=357.9f Ikf=.6605 Xtb=1.5 Br=3.606 Nc=2 Isc=64f Ikr=.305 Rb=15 
+  Rc=.4 Cjc=100p Mjc=.39 Vjc=.75 Fc=.5 Cje=93.8p Mje=.5729 Vje=.75 
+  Tr=718.4n Tf=25.14n Itf=.3 Vtf=50 Xtf=1.5)
*
**** 2T313 Family
*
.model q2T313a PNP(Is=3.306f Xti=3 Eg=1.11 Vaf=86.3 Bf=153.6 Ne=1.36 
+  Ise=3.306f Ikf=2.47 Xtb=1.5 Var=40 Br=3.375 Nc=2 Isc=33.2f Ikr=.85 
+  Rb=23.2 Rc=1.345 Cjc=18.71p Vjc=.69 Mjc=.31 Fc=.5 Cje=30.64p Vje=.69 
+  Mje=.33 Tr=58.87n Tf=267.9p Itf=.785 Vtf=65 Xtf=2)
.model q2T313b PNP(Is=3.306f Xti=3 Eg=1.11 Vaf=86.3 Bf=153.6 Ne=1.36 
+  Ise=3.306f Ikf=2.47 Xtb=1.5 Var=40 Br=3.375 Nc=2 Isc=33.2f Ikr=.85 
+  Rb=23.2 Rc=1.345 Cjc=18.71p Vjc=.69 Mjc=.31 Fc=.5 Cje=30.64p Vje=.69 
+  Mje=.33 Tr=58.87n Tf=267.9p Itf=.785 Vtf=65 Xtf=2)
*
**** 2T326 Family
*
.model q2T326a PNP(Is=496.3E-18 Xti=3 Eg=1.11 Vaf=110 Bf=79.59 Ne=1.376
+  Ise=8.406f Ikf=.106 Nk=.5 Xtb=1.5 Br=1 Isc=496.3E-18 Nc=1.636
+  Ikr=1u Rb=42 Rc=2.141 Cjc=3.7p Mjc=.33 Vjc=.75 Fc=.5 Cje=1.442p
+  Mje=.33 Vje=.75 Tr=3.696u Tf=443.3p Itf=1 Xtf=2 Vtf=20)
.model q2T326b PNP(Is=16.64f Xti=3 Eg=1.11 Vaf=115 Bf=99.06 Ne=2.527
+  Ise=54.12p Ikf=.6751 Xtb=1.5 Var=63 Br=1.75 Nc=2 Isc=12.5f Ikr=.52 
+  Rb=52.4 Rc=1.85 Cjc=4.089p Vjc=.69 Mjc=.33 Fc=.5 Cje=3.375p Vje=.75 
+  Mje=.35 Tr=40.04n Tf=160.2p Itf=.1 Vtf=10 Xtf=2)
*
**** KT351 Family
*
.model KT351a PNP(Is=4.943f Xti=3 Eg=1.11 Vaf=110 Bf=91.56 Ne=1.776 
+  Ise=1.436p Ikf=.2116 Xtb=1.5 Var=25 Br=1.215 Nc=2 Isc=1.45p Ikr=.25 
+  Rb=75 Rc=.44 Cjc=15.05p Vjc=.69 Mjc=.33 Fc=.5 Cje=24.48p Vje=.65 
+  Mje=.33 Tr=223.6n Tf=217.4p Itf=.28 Vtf=35 Xtf=2)
.model KT351b PNP(Is=4.943f Xti=3 Eg=1.11 Vaf=110 Bf=185.3 Ne=1.776 
+  Ise=1.436p Ikf=.2116 Xtb=1.5 Var=25 Br=1.215 Nc=2 Isc=1.45p Ikr=.25 
+  Rb=75 Rc=.44 Cjc=15.05p Vjc=.69 Mjc=.33 Fc=.5 Cje=24.48p Vje=.65 
+  Mje=.33 Tr=223.6n Tf=217.4p Itf=.28 Vtf=35 Xtf=2)
*
**** KT357 Family
*
.model KT357a   PNP(Is=67.34f Xti=3 Eg=1.11 Vaf=80 Bf=70.83 Ise=746.1f
+  Ne=1.452 Ikf=.1929 Nk=.5153 Xtb=1.5 Br=1 Isc=67.34f Nc=1.071
+  Ikr=2.269 Rc=3.665 Rb=50 Cjc=12.15p Mjc=.33 Vjc=.75 Fc=.5 Cje=18.5p
+  Mje=.33 Vje=.75 Tr=275.6n Tf=160.9p Itf=56.6m Xtf=.3203 Vtf=40)
.model KT357b   PNP(Is=31.08f Xti=3 Eg=1.11 Vaf=75 Bf=203.3 Ise=325.3f
+  Ne=1.534 Ikf=.2072 Nk=.5155 Xtb=1.5 Br=1 Isc=34.36f Nc=1.022
+  Ikr=3.163 Rc=3.748 Rb=70 Cjc=10.93p Mjc=.33 Vjc=.75 Fc=.5 Cje=18.5p
+  Mje=.33 Vje=.75 Tr=275.6n Tf=91.32p Itf=.1303 Xtf=1.762 Vtf=40)
*
**** 2T361 Family
*
.model KT361a   PNP(Is=67.34f Xti=3 Eg=1.11 Vaf=80 Bf=70.83 Ise=746.1f
+  Ne=1.452 Ikf=.1929 Nk=.5153 Xtb=1.5 Br=1 Isc=67.34f Nc=1.071
+  Ikr=2.269 Rc=3.665 Rb=50 Cjc=12.15p Mjc=.33 Vjc=.75 Fc=.5 Cje=18.5p
+  Mje=.33 Vje=.75 Tr=275.6n Tf=160.9p Itf=56.6m Xtf=.3203 Vtf=40)
.model KT361b   PNP(Is=31.08f Xti=3 Eg=1.11 Vaf=75 Bf=203.3 Ise=325.3f
+  Ne=1.534 Ikf=.2072 Nk=.5155 Xtb=1.5 Br=1 Isc=34.36f Nc=1.022
+  Ikr=3.163 Rc=3.748 Rb=70 Cjc=10.93p Mjc=.33 Vjc=.75 Fc=.5 Cje=18.5p
+  Mje=.33 Vje=.75 Tr=275.6n Tf=91.32p Itf=.1303 Xtf=1.762 Vtf=40)
.model KT361v   PNP(Is=67.34f Xti=3 Eg=1.11 Vaf=90.7 Bf=81.94 Ise=579.7f
+  Ne=1.51 Ikf=.2136 Nk=.5064 Xtb=1.5 Br=1 Isc=67.34f Nc=1.071
+  Ikr=2.269 Rc=3.665 Cjc=8.502p Mjc=.33 Vjc=.75 Fc=.5 Cje=18.5p
+  Mje=.33 Vje=.75 Tr=275.6n Tf=125.8p Itf=1.202 Xtf=5.752 Vtf=60)
.model KT361g   PNP(Is=31.08f Xti=3 Eg=1.11 Vaf=75 Bf=203.3 Ise=325.3f
+  Ne=1.534 Ikf=.2072 Nk=.5155 Xtb=1.5 Br=1 Isc=34.36f Nc=1.022
+  Ikr=3.163 Rc=3.748 Rb=70 Cjc=10.93p Mjc=.33 Vjc=.75 Fc=.5 Cje=18.5p
+  Mje=.33 Vje=.75 Tr=275.6n Tf=91.32p Itf=.1303 Xtf=1.762 Vtf=40)
.model KT361d   PNP(Is=67.34f Xti=3 Eg=1.11 Vaf=80 Bf=70.83 Ise=746.1f
+  Ne=1.452 Ikf=.1929 Nk=.5153 Xtb=1.5 Br=1 Isc=67.34f Nc=1.071
+  Ikr=2.269 Rc=3.665 Rb=50 Cjc=12.15p Mjc=.33 Vjc=.75 Fc=.5 Cje=18.5p
+  Mje=.33 Vje=.75 Tr=275.6n Tf=160.9p Itf=56.6m Xtf=.3203 Vtf=40)
*
**** KT363 Family
*
.model q2T363a PNP(Is=11.8f Xti=3 Eg=1.11 Vaf=95.7 Bf=100.6 Ne=1.971 
+  Ise=1.834p Ikf=.195 Xtb=1.5 Var=65 Br=1.18 Nc=2 Isc=1p Ikr=.3 Rb=80
+  Rc=1.6 Cjc=2.958p Vjc=.69 Mjc=.33 Fc=.5 Cje=1.112p Vje=.71 Mje=.35 
+  Tr=6.149n Tf=41.32p Itf=.12 Vtf=10 Xtf=2)
.model q2T363b PNP(Is=11.8f Xti=3 Eg=1.11 Vaf=95.7 Bf=156.2 Ne=1.971 
+  Ise=1.834p Ikf=.195 Xtb=1.5 Var=65 Br=1.18 Nc=2 Isc=1p Ikr=.3 Rb=67.5
+  Rc=1.6 Cjc=2.958p Vjc=.69 Mjc=.33 Fc=.5 Cje=1.112p Vje=.71 Mje=.35 
+  Tr=6.149n Tf=41.32p Itf=.12 Vtf=10 Xtf=2)
*
**** KT3107 Family
*
.model KT3107a PNP(Is=6.545f Xti=3 Eg=1.11 Vaf=86.5 Bf=105.5 Ne=8.56 
+  Ise=7.735n Ikf=.1862 Xtb=1.5 Var=32 Br=1.62 Nc=2 Isc=3.35p Ikr=12m 
+  Rb=39.1 Rc=.71 Cjc=12.83p Vjc=.65 Mjc=.33 Fc=.5 Cje=12.59p Vje=.69 
+  Mje=.35 Tr=30.5n Tf=477.5p Itf=56m Vtf=35 Xtf=2)
.model KT3107b PNP(Is=2.111f Xti=3 Eg=1.11 Vaf=68.5 Bf=145.2 Ne=2.367
+  Ise=7.338p Ikf=.242 Xtb=1.5 Var=32 Br=7.573 Nc=2 Isc=1.55p Ikr=25m 
+  Rb=25.5 Rc=.75 Cjc=11.86p Vjc=.69 Mjc=.33 Fc=.5 Cje=13.01p Vje=.69 
+  Mje=.35 Tr=20.11n Tf=474p Itf=.15 Vtf=25 Xtf=1)
.model KT3107v PNP(Is=6.545f Xti=3 Eg=1.11 Vaf=86.5 Bf=105.5 Ne=8.56 
+  Ise=7.735n Ikf=.1862 Xtb=1.5 Var=32 Br=1.62 Nc=2 Isc=3.35p Ikr=12m 
+  Rb=39.1 Rc=.71 Cjc=12.83p Vjc=.65 Mjc=.33 Fc=.5 Cje=12.59p Vje=.69 
+  Mje=.35 Tr=30.5n Tf=477.5p Itf=56m Vtf=35 Xtf=2)
.model KT3107g PNP(Is=6.531f Xti=3 Eg=1.11 Vaf=68.5 Bf=237.5 Ne=2.367
+  Ise=7.338p Ikf=.242 Xtb=1.5 Var=32 Br=7.573 Nc=2 Isc=1.55p Ikr=25m 
+  Rb=25.5 Rc=.75 Cjc=11.86p Vjc=.69 Mjc=.33 Fc=.5 Cje=13.01p Vje=.69 
+  Mje=.35 Tr=20.11n Tf=474p Itf=.15 Vtf=25 Xtf=1)
*
**** 2T3108 Family
*
.model q2T3108a PNP(Is=1.41f Xti=3 Eg=1.11 Vaf=87 Bf=112.7 Ne=3.346 
+  Ise=114.2p Ikf=31.92m Xtb=1.5 Br=1.883 Nc=2 Isc=114f Ikr=31m Rc=4.25
+  Rb=52 Cjc=4.372p Mjc=.33 Vjc=.75 Fc=.5 Cje=3.714p Mje=.33 Vje=.75
+  Tr=67.31n Tf=344.1p Itf=56m Vtf=45 Xtf=1.5)
.model q2T3108b PNP(Is=863E-18 Xti=3 Eg=1.11 Vaf=85 Bf=112.4 Ne=12.53
+  Ise=37.65n Ikf=27.99m Xtb=1.5 Var=26 Br=2.984 Nc=2 Isc=1.25p Ikr=56m 
+  Rb=52 Rc=4.24 Cjc=4.529p Vjc=.65 Mjc=.33 Fc=.5 Cje=3.763p Vje=.69 
+  Mje=.33 Tr=43.55n Tf=292.3p Itf=58m Vtf=55 Xtf=2)
.model q2T3108v PNP(Is=1.41f Xti=3 Eg=1.11 Vaf=83 Bf=223.5 Ne=3.657 
+  Ise=101p Ikf=35.11m Xtb=1.5 Br=1.655 Nc=2 Isc=114f Ikr=31m Rc=4.5
+  Rb=52 Cjc=4.372p Mjc=.33 Vjc=.75 Fc=.5 Cje=3.714p Mje=.33 Vje=.75
+  Tr=63.22n Tf=339.5p Itf=93m Vtf=40 Xtf=1.5)
*
**** KT502  Family
*
.model KT502a   PNP(Is=3.48f Xti=3 Eg=1.11 Vaf=60 Bf=121.1 Ise=27.32f
+  Ne=1.358 Ikf=74.95m Nk=.4803 Xtb=1.5 Br=1 Isc=13.91f Nc=1.34
+  Ikr=2.077 Rb=12 Rc=.9855 Cjc=23.66p Mjc=.33 Vjc=.75 Fc=.5
+  Cje=26.53p Mje=.33 Vje=.75 Tr=923.3n Tf=10.3n Itf=1 Xtf=2 Vtf=25)
.model KT502b   PNP(Is=3.48f Xti=3 Eg=1.11 Vaf=60 Bf=209.4 Ise=54.03f
+  Ne=1.457 Ikf=27.44m Nk=.5 Xtb=1.5 Br=1.2 Isc=13.91f Nc=1.34
+  Ikr=2.077 Rb=15 Rc=1.133 Cjc=23.66p Mjc=.33 Vjc=.75 Fc=.5
+  Cje=26.53p Mje=.33 Vje=.75 Tr=712.7n Tf=7.62n Itf=1 Xtf=2 Vtf=25)
.model KT502v   PNP(Is=7.541f Xti=3 Eg=1.11 Vaf=115 Bf=118.8 Ise=61.46f
+  Ne=1.382 Ikf=.1498 Nk=.593 Xtb=1.5 Br=2.3 Isc=13.91f Nc=1.34
+  Ikr=2.077 Rb=10 Rc=1.2 Cjc=23.66p Mjc=.33 Vjc=.75 Fc=.5 Cje=26.53p
+  Mje=.33 Vje=.75 Tr=363.5n Tf=10.3n Itf=1 Xtf=2 Vtf=25)
.model KT502g   PNP(Is=3.48f Xti=3 Eg=1.11 Vaf=100 Bf=209.4 Ise=54.03f
+  Ne=1.457 Ikf=27.44m Nk=.5 Xtb=1.5 Br=1.2 Isc=13.91f Nc=1.34
+  Ikr=2.077 Rb=15 Rc=1.133 Cjc=23.66p Mjc=.33 Vjc=.75 Fc=.5
+  Cje=26.53p Mje=.33 Vje=.75 Tr=712.7n Tf=7.62n Itf=1 Xtf=2 Vtf=40)
.model KT502d   PNP(Is=7.541f Xti=3 Eg=1.11 Vaf=115 Bf=118.7 Ise=73.88f
+  Ne=1.396 Ikf=.1211 Nk=.5237 Xtb=1.5 Br=2.3 Isc=13.91f Nc=1.34
+  Ikr=2.077 Rb=15 Rc=1.2 Cjc=23.66p Mjc=.33 Vjc=.75 Fc=.5 Cje=26.53p
+  Mje=.33 Vje=.75 Tr=484.6n Tf=12.96n Itf=1 Xtf=2 Vtf=50)
.model KT502e   PNP(Is=3.48f Xti=3 Eg=1.11 Vaf=120 Bf=121.1 Ise=27.32f
+  Ne=1.358 Ikf=74.95m Nk=.4803 Xtb=1.5 Br=1 Isc=13.91f Nc=1.34
+  Ikr=2.077 Rb=12 Rc=.9855 Cjc=23.66p Mjc=.33 Vjc=.75 Fc=.5
+  Cje=26.53p Mje=.33 Vje=.75 Tr=923.3n Tf=10.3n Itf=1 Xtf=2 Vtf=80)
*
**** 2T504 - 505 Family
*
.model q2T505a  PNP(Is=77.95f Xti=3 Eg=1.11 Vaf=98 Bf=242.4 Ise=890f 
+  Ne=1.403 Ikf=2.079 Nk=.6286 Xtb=1.5 Br=1.93 Isc=53.03p Nc=1.441
+  Ikr=81.42m Rb=8.3 Rc=.6239 Cjc=59.15p Mjc=.33 Vjc=.75 Fc=.5
+  Cje=474.3p Mje=.33 Vje=.65 Tr=810.9n Tf=3.558n Itf=8 Xtf=2 Vtf=40)
*
**** KT630 - 638 Family
*
.model q2T632a  PNP(Is=14.34f Xti=3 Eg=1.11 Vaf=106 Bf=157.2 Ise=107f
+  Ne=1.424 Ikf=.1495 Nk=.4496 Xtb=1.5 Br=.85 Isc=8.399p Nc=2.28
+  Ikr=.1449 Rb=44.3 Rc=3.208 Cjc=9.073p Mjc=.33 Vjc=.7 Fc=.5 Mje=.33
+  Cje=25.11p Vje=.65 Tr=1.49u Tf=531.4p Itf=65.94m Xtf=.2 Vtf=40)
*
**** KT814 Family
*
.model KT814a   PNP(Is=11.45f Xti=3 Eg=1.11 Vaf=62.37 Bf=176.8 Ise=88.24f
+  Ne=1.411 Ikf=.3656 Nk=.6491 Xtb=1.5 Br=1.238 Isc=269.4f Nc=1.51
+  Ikr=1.275 Rc=.1654 Rb=4 Cjc=88.73p Mjc=.3333 Vjc=.75 Fc=.5
+  Cje=71.14p Mje=.33 Vje=.75 Tr=2.046u Tf=26.36n Itf=3 Xtf=5 Vtf=10)
.model KT814b   PNP(Is=11.45f Xti=3 Eg=1.11 Vaf=72.62 Bf=128.7 Ise=97.57f
+  Ne=1.421 Ikf=.2157 Nk=.4096 Xtb=1.5 Br=1.928 Isc=637.6f Nc=1.41
+  Ikr=.5927 Rc=.2979 Rb=4 Cjc=88.73p Mjc=.3333 Vjc=.75 Fc=.5
+  Cje=71.14p Mje=.3333 Vje=.75 Tr=2.046u Tf=26.36n Itf=3 Xtf=5 Vtf=10)
.model KT814v   PNP(Is=11.45f Xti=3 Eg=1.11 Vaf=100 Bf=102.8 Ise=97.57f
+  Ne=1.421 Ikf=.2157 Nk=.4096 Xtb=1.5 Br=1.928 Isc=637.6f Nc=1.41
+  Ikr=.5927 Rc=.2979 Rb=4 Cjc=88.73p Mjc=.3333 Vjc=.75 Fc=.5
+  Cje=71.14p Mje=.3333 Vje=.75 Tr=2.046u Tf=26.36n Itf=3 Xtf=5 Vtf=10)
*
**** KT818 Family
*
.model KT818a   PNP(Is=150.1f Xti=3 Eg=1.11 Vaf=70 Bf=135.8 Ise=2.436p 
+  Ne=1.37 Ikf=6.563 Nk=.6668 Xtb=1.5 Br=1.6 Isc=2.847p Nc=1.564 Ikr=.24
+  Rc=74m Rb=1 Cjc=1.183n Mjc=.3333 Vjc=.75 Fc=.5 Cje=1.635n Mje=.3333
+  Vje=.75 Tr=2.65u Tf=20.02n Itf=.3063 Xtf=.8299 Vtf=10)
.model KT818b   PNP(Is=150.1f Xti=3 Eg=1.11 Vaf=80 Bf=179.1 Ise=1.171p
+  Ne=1.321 Ikf=5.846 Nk=.6543 Xtb=1.5 Br=1.6 Isc=2.847p Nc=1.564 Ikr=.24 
+  Rc=74m Rb=1 Cjc=1.183n Mjc=.3333 Vjc=.75 Fc=.5 Cje=1.635n Mje=.3333 
+  Vje=.75 Tr=2.203u Tf=20.02n Itf=.3063 Xtf=.8299 Vtf=10)
.model KT818v   PNP(Is=150.1f Xti=3 Eg=1.11 Vaf=100 Bf=179.1 Ise=1.171p
+  Ne=1.321 Ikf=5.846 Nk=.6543 Xtb=1.5 Br=1.6 Isc=2.847p Nc=1.564 Ikr=.24 
+  Rc=74m Rb=1 Cjc=1.183n Mjc=.3333 Vjc=.75 Fc=.5 Cje=1.635n Mje=.3333 
+  Vje=.75 Tr=2.203u Tf=20.02n Itf=.3063 Xtf=.8299 Vtf=10)
*
**** KT830 Family
*
.model q2T830a  PNP(Is=40.74f Xti=3 Eg=1.11 Vaf=65 Bf=132.5 Ne=1.782 
+  Ise=3.717p Ikf=.936 Xtb=1.5 Var=40 Br=.626 Nc=2 Isc=3.7p Ikr=.96 
+  Rb=9 Rc=.25 Cjc=131.2p Mjc=.33 Vjc=.75 Fc=.5 Cje=114.7p Mje=.35 
+  Vje=.65 Tr=3.056u Tf=17.31n Itf=.95 Vtf=25 Xtf=2)
.model q2T830b  PNP(Is=40.74f Xti=3 Eg=1.11 Vaf=75 Bf=132.5 Ne=1.782 
+  Ise=3.717p Ikf=.936 Xtb=1.5 Var=40 Br=.626 Nc=2 Isc=3.7p Ikr=.96 
+  Rb=9 Rc=.25 Cjc=131.2p Mjc=.33 Vjc=.75 Fc=.5 Cje=114.7p Mje=.35 
+  Vje=.65 Tr=3.056u Tf=17.31n Itf=.95 Vtf=25 Xtf=2)
.model q2T830v  PNP(Is=40.74f Xti=3 Eg=1.11 Vaf=95 Bf=108.8 Ne=1.731 
+  Ise=3.085p Ikf=1.873 Xtb=1.5 Var=50 Br=0.751 Nc=2 Isc=3.1p Ikr=1.8
+  Rb=12 Rc=.35 Cjc=131.2p Mjc=.33 Vjc=.75 Fc=.5 Cje=114.7p Mje=.35 
+  Vje=.65 Tr=3.056u Tf=17.31n Itf=1.8 Vtf=50 Xtf=2)
*
**** 2T842a p-n-p
*
.model q2T842a  PNP(Is=120.1f Xti=3 Eg=1.11 Vaf=100 Bf=174.1 Ne=1.498
+  Ise=1.681p Ikf=5.206 Nk=.5749 Xtb=1.5 Br=1.302 Isc=3.044p
+  Nc=1.426 Ikr=1.064 Rb=1 Rc=.2374 Cjc=557.4p Mjc=.3779 Vjc=.75 Fc=.5
+  Cje=3.051n Mje=.33 Vje=.75 Tr=825.9n Tf=5.126n Itf=25 Xtf=1.1 Vtf=40)
*
**** KT933 Family
*
.model q2T933a  PNP(Is=18.19f Xti=3 Eg=1.11 Vaf=78 Bf=122.8 Ise=86.44f
+  Ne=1.284 Ikf=.2819 Nk=.4822 Xtb=1.5 Br=1 Isc=57.65p Nc=2.096
+  Ikr=1.637 Rb=11 Rc=1.538 Cjc=39.2p Mjc=.4435 Vjc=.75 Fc=.5 Cje=23.31p
+  Mje=.201 Vje=.75 Tr=202.1n Tf=313.9p Itf=2.51 Xtf=1.52 Vtf=40)
*
****  Darlington Transistors 
*
.Subckt q2T825a   1  2  3
*    Terminals:   C  B  E    *  Darlington   PNP  
Q1 1 2 4 q825a 0.1
Q2 1 4 3 q825a
R1 2 4  8K
R2 4 3  150
D1 1 3  d825a
.Model q825a    PNP(Is=632.4f Xti=3 Eg=1.11 Vaf=100 Bf=112.1 Ise=962.8f
+  Ne=1.373 Ikf=2.187 Nk=.6196 Xtb=2.1 Br=66.4 Isc=974.4f Nc=1.207
+  Ikr=125.8 Rc=.2066 Cjc=508.9p Mjc=.4847 Vjc=.75 Fc=.5  Cje=379.8p 
+  Mje=.4937 Vje=.75 Tr=89.17n Tf=17.41n Itf=5.921 Xtf=1.062 Vtf=10 Rb=.1)
.Model d825a  D(Is=1.2p N=1 RS=.1 BV=100 IBV=.001 CJO=260p TT=500n)
.Ends
*
* End of library file